LMOPF_118f.m
function mpc = LMOPF_118f
%LMOPF_118f    Power flow data for modified IEEE 118 bus test case.
%   Please see CASEFORMAT for details on the case file format.


%% MATPOWER Case Format : Version 2
mpc.version = '2';

%%-----  Power Flow Data  -----%%
%% system MVA base
mpc.baseMVA = 100;

%% bus data
%	bus_i	type	Pd	Qd	Gs	Bs	area	Vm	Va	baseKV	zone	Vmax	Vmin
mpc.bus = [
	1	2	51	27	0	0	1	0.955	10.67	138	1	1.06	0.94;
	2	1	20	9	0	0	1	0.971	11.22	138	1	1.06	0.94;
	3	1	39	10	0	0	1	0.968	11.56	138	1	1.06	0.94;
	4	2	39	12	0	0	1	0.998	15.28	138	1	1.06	0.94;
	5	1	0	0	0	-40	1	1.002	15.73	138	1	1.06	0.94;
	6	2	52	22	0	0	1	0.99	13	138	1	1.06	0.94;
	7	1	19	2	0	0	1	0.989	12.56	138	1	1.06	0.94;
	8	2	28	0	0	0	1	1.015	20.77	345	1	1.06	0.94;
	9	1	0	0	0	0	1	1.043	28.02	345	1	1.06	0.94;
	10	2	0	0	0	0	1	1.05	35.61	345	1	1.06	0.94;
	11	1	70	23	0	0	1	0.985	12.72	138	1	1.06	0.94;
	12	2	47	10	0	0	1	0.99	12.2	138	1	1.06	0.94;
	13	1	34	16	0	0	1	0.968	11.35	138	1	1.06	0.94;
	14	1	14	1	0	0	1	0.984	11.5	138	1	1.06	0.94;
	15	2	90	30	0	0	1	0.97	11.23	138	1	1.06	0.94;
	16	1	25	10	0	0	1	0.984	11.91	138	1	1.06	0.94;
	17	1	11	3	0	0	1	0.995	13.74	138	1	1.06	0.94;
	18	2	60	34	0	0	1	0.973	11.53	138	1	1.06	0.94;
	19	2	45	25	0	0	1	0.963	11.05	138	1	1.06	0.94;
	20	1	18	3	0	0	1	0.958	11.93	138	1	1.06	0.94;
	21	1	14	8	0	0	1	0.959	13.52	138	1	1.06	0.94;
	22	1	10	5	0	0	1	0.97	16.08	138	1	1.06	0.94;
	23	1	7	3	0	0	1	1	21	138	1	1.06	0.94;
	24	2	13	0	0	0	1	0.992	20.89	138	1	1.06	0.94;
	25	2	0	0	0	0	1	1.05	27.93	138	1	1.06	0.94;
	26	2	0	0	0	0	1	1.015	29.71	345	1	1.06	0.94;
	27	2	71	13	0	0	1	0.968	15.35	138	1	1.06	0.94;
	28	1	17	7	0	0	1	0.962	13.62	138	1	1.06	0.94;
	29	1	24	4	0	0	1	0.963	12.63	138	1	1.06	0.94;
	30	1	0	0	0	0	1	0.968	18.79	345	1	1.06	0.94;
	31	2	43	27	0	0	1	0.967	12.75	138	1	1.06	0.94;
	32	2	59	23	0	0	1	0.964	14.8	138	1	1.06	0.94;
	33	1	23	9	0	0	1	0.972	10.63	138	1	1.06	0.94;
	34	2	59	26	0	14	1	0.986	11.3	138	1	1.06	0.94;
	35	1	33	9	0	0	1	0.981	10.87	138	1	1.06	0.94;
	36	2	31	17	0	0	1	0.98	10.87	138	1	1.06	0.94;
	37	1	0	0	0	-25	1	0.992	11.77	138	1	1.06	0.94;
	38	1	0	0	0	0	1	0.962	16.91	345	1	1.06	0.94;
	39	1	27	11	0	0	1	0.97	8.41	138	1	1.06	0.94;
	40	2	66	23	0	0	1	0.97	7.35	138	1	1.06	0.94;
	41	1	37	10	0	0	1	0.967	6.92	138	1	1.06	0.94;
	42	2	96	23	0	0	1	0.985	8.53	138	1	1.06	0.94;
	43	1	18	7	0	0	1	0.978	11.28	138	1	1.06	0.94;
	44	1	16	8	0	10	1	0.985	13.82	138	1	1.06	0.94;
	45	1	53	22	0	10	1	0.987	15.67	138	1	1.06	0.94;
	46	2	28	10	0	10	1	1.005	18.49	138	1	1.06	0.94;
	47	1	34	0	0	0	1	1.017	20.73	138	1	1.06	0.94;
	48	1	20	11	0	15	1	1.021	19.93	138	1	1.06	0.94;
	49	2	87	30	0	0	1	1.025	20.94	138	1	1.06	0.94;
	50	1	17	4	0	0	1	1.001	18.9	138	1	1.06	0.94;
	51	1	17	8	0	0	1	0.967	16.28	138	1	1.06	0.94;
	52	1	18	5	0	0	1	0.957	15.32	138	1	1.06	0.94;
	53	1	23	11	0	0	1	0.946	14.35	138	1	1.06	0.94;
	54	2	113	32	0	0	1	0.955	15.26	138	1	1.06	0.94;
	55	2	63	22	0	0	1	0.952	14.97	138	1	1.06	0.94;
	56	2	84	18	0	0	1	0.954	15.16	138	1	1.06	0.94;
	57	1	12	3	0	0	1	0.971	16.36	138	1	1.06	0.94;
	58	1	12	3	0	0	1	0.959	15.51	138	1	1.06	0.94;
	59	2	277	113	0	0	1	0.985	19.37	138	1	1.06	0.94;
	60	1	78	3	0	0	1	0.993	23.15	138	1	1.06	0.94;
	61	2	0	0	0	0	1	0.995	24.04	138	1	1.06	0.94;
	62	2	77	14	0	0	1	0.998	23.43	138	1	1.06	0.94;
	63	1	0	0	0	0	1	0.969	22.75	345	1	1.06	0.94;
	64	1	0	0	0	0	1	0.984	24.52	345	1	1.06	0.94;
	65	2	0	0	0	0	1	1.005	27.65	345	1	1.06	0.94;
	66	2	39	18	0	0	1	1.05	27.48	138	1	1.06	0.94;
	67	1	28	7	0	0	1	1.02	24.84	138	1	1.06	0.94;
	68	1	0	0	0	0	1	1.003	27.55	345	1	1.06	0.94;
	69	3	0	0	0	0	1	1.035	30	138	1	1.06	0.94;
	70	2	66	20	0	0	1	0.984	22.58	138	1	1.06	0.94;
	71	1	0	0	0	0	1	0.987	22.15	138	1	1.06	0.94;
	72	2	12	0	0	0	1	0.98	20.98	138	1	1.06	0.94;
	73	2	6	0	0	0	1	0.991	21.94	138	1	1.06	0.94;
	74	2	68	27	0	12	1	0.958	21.64	138	1	1.06	0.94;
	75	1	47	11	0	0	1	0.967	22.91	138	1	1.06	0.94;
	76	2	68	36	0	0	1	0.943	21.77	138	1	1.06	0.94;
	77	2	61	28	0	0	1	1.006	26.72	138	1	1.06	0.94;
	78	1	71	26	0	0	1	1.003	26.42	138	1	1.06	0.94;
	79	1	39	32	0	20	1	1.009	26.72	138	1	1.06	0.94;
	80	2	130	26	0	0	1	1.04	28.96	138	1	1.06	0.94;
	81	1	0	0	0	0	1	0.997	28.1	345	1	1.06	0.94;
	82	1	54	27	0	20	1	0.989	27.24	138	1	1.06	0.94;
	83	1	20	10	0	10	1	0.985	28.42	138	1	1.06	0.94;
	84	1	11	7	0	0	1	0.98	30.95	138	1	1.06	0.94;
	85	2	24	15	0	0	1	0.985	32.51	138	1	1.06	0.94;
	86	1	21	10	0	0	1	0.987	31.14	138	1	1.06	0.94;
	87	2	0	0	0	0	1	1.015	31.4	161	1	1.06	0.94;
	88	1	48	10	0	0	1	0.987	35.64	138	1	1.06	0.94;
	89	2	0	0	0	0	1	1.005	39.69	138	1	1.06	0.94;
	90	2	163	42	0	0	1	0.985	33.29	138	1	1.06	0.94;
	91	2	10	0	0	0	1	0.98	33.31	138	1	1.06	0.94;
	92	2	65	10	0	0	1	0.993	33.8	138	1	1.06	0.94;
	93	1	12	7	0	0	1	0.987	30.79	138	1	1.06	0.94;
	94	1	30	16	0	0	1	0.991	28.64	138	1	1.06	0.94;
	95	1	42	31	0	0	1	0.981	27.67	138	1	1.06	0.94;
	96	1	38	15	0	0	1	0.993	27.51	138	1	1.06	0.94;
	97	1	15	9	0	0	1	1.011	27.88	138	1	1.06	0.94;
	98	1	34	8	0	0	1	1.024	27.4	138	1	1.06	0.94;
	99	2	42	0	0	0	1	1.01	27.04	138	1	1.06	0.94;
	100	2	37	18	0	0	1	1.017	28.03	138	1	1.06	0.94;
	101	1	22	15	0	0	1	0.993	29.61	138	1	1.06	0.94;
	102	1	5	3	0	0	1	0.991	32.3	138	1	1.06	0.94;
	103	2	23	16	0	0	1	1.001	24.44	138	1	1.06	0.94;
	104	2	38	25	0	0	1	0.971	21.69	138	1	1.06	0.94;
	105	2	31	26	0	20	1	0.965	20.57	138	1	1.06	0.94;
	106	1	43	16	0	0	1	0.962	20.32	138	1	1.06	0.94;
	107	2	50	12	0	6	1	0.952	17.53	138	1	1.06	0.94;
	108	1	2	1	0	0	1	0.967	19.38	138	1	1.06	0.94;
	109	1	8	3	0	0	1	0.967	18.93	138	1	1.06	0.94;
	110	2	39	30	0	6	1	0.973	18.09	138	1	1.06	0.94;
	111	2	0	0	0	0	1	0.98	19.74	138	1	1.06	0.94;
	112	2	68	13	0	0	1	0.975	14.99	138	1	1.06	0.94;
	113	2	6	0	0	0	1	0.993	13.74	138	1	1.06	0.94;
	114	1	8	3	0	0	1	0.96	14.46	138	1	1.06	0.94;
	115	1	22	7	0	0	1	0.96	14.46	138	1	1.06	0.94;
	116	2	184	0	0	0	1	1.005	27.12	138	1	1.06	0.94;
	117	1	20	8	0	0	1	0.974	10.67	138	1	1.06	0.94;
	118	1	33	15	0	0	1	0.949	21.92	138	1	1.06	0.94;
];

%% generator data
%	bus	Pg	Qg	Qmax	Qmin	Vg	mBase	status	Pmax	Pmin	Pc1	Pc2	Qc1min	Qc1max	Qc2min	Qc2max	ramp_agc	ramp_10	ramp_30	ramp_q	apf
mpc.gen = [
	1	0	0	15	-5	0.955	100	1	100	0	0	0	0	0	0	0	0	0	0	0	0;
	4	0	0	300	-300	0.998	100	1	100	0	0	0	0	0	0	0	0	0	0	0	0;
	6	0	0	50	-13	0.99	100	1	100	0	0	0	0	0	0	0	0	0	0	0	0;
	8	0	0	300	-300	1.015	100	1	100	0	0	0	0	0	0	0	0	0	0	0	0;
	10	450	0	200	-147	1.05	100	1	550	0	0	0	0	0	0	0	0	0	0	0	0;
	12	85	0	120	-35	0.99	100	1	185	0	0	0	0	0	0	0	0	0	0	0	0;
	15	0	0	30	-10	0.97	100	1	100	0	0	0	0	0	0	0	0	0	0	0	0;
	18	0	0	50	-16	0.973	100	1	100	0	0	0	0	0	0	0	0	0	0	0	0;
	19	0	0	24	-8	0.962	100	1	100	0	0	0	0	0	0	0	0	0	0	0	0;
	24	0	0	300	-300	0.992	100	1	100	0	0	0	0	0	0	0	0	0	0	0	0;
	25	220	0	140	-47	1.05	100	1	320	0	0	0	0	0	0	0	0	0	0	0	0;
	26	314	0	1000	-1000	1.015	100	1	414	0	0	0	0	0	0	0	0	0	0	0	0;
	27	0	0	300	-300	0.968	100	1	100	0	0	0	0	0	0	0	0	0	0	0	0;
	31	7	0	300	-300	0.967	100	1	107	0	0	0	0	0	0	0	0	0	0	0	0;
	32	0	0	42	-14	0.963	100	1	100	0	0	0	0	0	0	0	0	0	0	0	0;
	34	0	0	24	-8	0.984	100	1	100	0	0	0	0	0	0	0	0	0	0	0	0;
	36	0	0	24	-8	0.98	100	1	100	0	0	0	0	0	0	0	0	0	0	0	0;
	40	0	0	300	-300	0.97	100	1	100	0	0	0	0	0	0	0	0	0	0	0	0;
	42	0	0	300	-300	0.985	100	1	100	0	0	0	0	0	0	0	0	0	0	0	0;
	46	19	0	100	-100	1.005	100	1	119	0	0	0	0	0	0	0	0	0	0	0	0;
	49	204	0	210	-85	1.025	100	1	304	0	0	0	0	0	0	0	0	0	0	0	0;
	54	48	0	300	-300	0.955	100	1	148	0	0	0	0	0	0	0	0	0	0	0	0;
	55	0	0	23	-8	0.952	100	1	100	0	0	0	0	0	0	0	0	0	0	0	0;
	56	0	0	15	-8	0.954	100	1	100	0	0	0	0	0	0	0	0	0	0	0	0;
	59	155	0	180	-60	0.985	100	1	255	0	0	0	0	0	0	0	0	0	0	0	0;
	61	160	0	300	-100	0.995	100	1	260	0	0	0	0	0	0	0	0	0	0	0	0;
	62	0	0	20	-20	0.998	100	1	100	0	0	0	0	0	0	0	0	0	0	0	0;
	65	391	0	200	-67	1.005	100	1	491	0	0	0	0	0	0	0	0	0	0	0	0;
	66	392	0	200	-67	1.05	100	1	492	0	0	0	0	0	0	0	0	0	0	0	0;
	69	516.4	0	300	-300	1.035	100	1	805.2	0	0	0	0	0	0	0	0	0	0	0	0;
	70	0	0	32	-10	0.984	100	1	100	0	0	0	0	0	0	0	0	0	0	0	0;
	72	0	0	100	-100	0.98	100	1	100	0	0	0	0	0	0	0	0	0	0	0	0;
	73	0	0	100	-100	0.991	100	1	100	0	0	0	0	0	0	0	0	0	0	0	0;
	74	0	0	9	-6	0.958	100	1	100	0	0	0	0	0	0	0	0	0	0	0	0;
	76	0	0	23	-8	0.943	100	1	100	0	0	0	0	0	0	0	0	0	0	0	0;
	77	0	0	70	-20	1.006	100	1	100	0	0	0	0	0	0	0	0	0	0	0	0;
	80	477	0	280	-165	1.04	100	1	577	0	0	0	0	0	0	0	0	0	0	0	0;
	85	0	0	23	-8	0.985	100	1	100	0	0	0	0	0	0	0	0	0	0	0	0;
	87	4	0	1000	-100	1.015	100	1	104	0	0	0	0	0	0	0	0	0	0	0	0;
	89	607	0	300	-210	1.005	100	1	707	0	0	0	0	0	0	0	0	0	0	0	0;
	90	0	0	300	-300	0.985	100	1	100	0	0	0	0	0	0	0	0	0	0	0	0;
	91	0	0	100	-100	0.98	100	1	100	0	0	0	0	0	0	0	0	0	0	0	0;
	92	0	0	9	-3	0.99	100	1	100	0	0	0	0	0	0	0	0	0	0	0	0;
	99	0	0	100	-100	1.01	100	1	100	0	0	0	0	0	0	0	0	0	0	0	0;
	100	252	0	155	-50	1.017	100	1	352	0	0	0	0	0	0	0	0	0	0	0	0;
	103	40	0	40	-15	1.01	100	1	140	0	0	0	0	0	0	0	0	0	0	0	0;
	104	0	0	23	-8	0.971	100	1	100	0	0	0	0	0	0	0	0	0	0	0	0;
	105	0	0	23	-8	0.965	100	1	100	0	0	0	0	0	0	0	0	0	0	0	0;
	107	0	0	200	-200	0.952	100	1	100	0	0	0	0	0	0	0	0	0	0	0	0;
	110	0	0	23	-8	0.973	100	1	100	0	0	0	0	0	0	0	0	0	0	0	0;
	111	36	0	1000	-100	0.98	100	1	136	0	0	0	0	0	0	0	0	0	0	0	0;
	112	0	0	1000	-100	0.975	100	1	100	0	0	0	0	0	0	0	0	0	0	0	0;
	113	0	0	200	-100	0.993	100	1	100	0	0	0	0	0	0	0	0	0	0	0	0;
	116	0	0	1000	-1000	1.005	100	1	100	0	0	0	0	0	0	0	0	0	0	0	0;
];

%% branch data
%	fbus	tbus	r	x	b	rateA	rateB	rateC	ratio	angle	status	angmin	angmax
mpc.branch = [
	1	2	0.0303	0.0999	0.0254	0	0	0	0	0	1	-360	360;
	1	3	0.0129	0.0424	0.01082	0	0	0	0	0	1	-360	360;
	4	5	0.00176	0.00798	0.0021	0	0	0	0	0	1	-360	360;
	3	5	0.0241	0.108	0.0284	0	0	0	0	0	1	-360	360;
	5	6	0.0119	0.054	0.01426	0	0	0	0	0	1	-360	360;
	6	7	0.00459	0.0208	0.0055	0	0	0	0	0	1	-360	360;
	8	9	0.00244	0.0305	1.162	0	0	0	0	0	1	-360	360;
	8	5	0	0.0267	0	0	0	0	0.985	0	1	-360	360;
	9	10	0.00258	0.0322	1.23	0	0	0	0	0	1	-360	360;
	4	11	0.0209	0.0688	0.01748	0	0	0	0	0	1	-360	360;
	5	11	0.0203	0.0682	0.01738	0	0	0	0	0	1	-360	360;
	11	12	0.00595	0.0196	0.00502	0	0	0	0	0	1	-360	360;
	2	12	0.0187	0.0616	0.01572	0	0	0	0	0	1	-360	360;
	3	12	0.0484	0.16	0.0406	0	0	0	0	0	1	-360	360;
	7	12	0.00862	0.034	0.00874	0	0	0	0	0	1	-360	360;
	11	13	0.02225	0.0731	0.01876	0	0	0	0	0	1	-360	360;
	12	14	0.0215	0.0707	0.01816	0	0	0	0	0	1	-360	360;
	13	15	0.0744	0.2444	0.06268	0	0	0	0	0	1	-360	360;
	14	15	0.0595	0.195	0.0502	0	0	0	0	0	1	-360	360;
	12	16	0.0212	0.0834	0.0214	0	0	0	0	0	1	-360	360;
	15	17	0.0132	0.0437	0.0444	0	0	0	0	0	1	-360	360;
	16	17	0.0454	0.1801	0.0466	0	0	0	0	0	1	-360	360;
	17	18	0.0123	0.0505	0.01298	0	0	0	0	0	1	-360	360;
	18	19	0.01119	0.0493	0.01142	0	0	0	0	0	1	-360	360;
	19	20	0.0252	0.117	0.0298	0	0	0	0	0	1	-360	360;
	15	19	0.012	0.0394	0.0101	0	0	0	0	0	1	-360	360;
	20	21	0.0183	0.0849	0.0216	0	0	0	0	0	1	-360	360;
	21	22	0.0209	0.097	0.0246	0	0	0	0	0	1	-360	360;
	22	23	0.0342	0.159	0.0404	0	0	0	0	0	1	-360	360;
	23	24	0.0135	0.0492	0.0498	0	0	0	0	0	1	-360	360;
	23	25	0.0156	0.08	0.0864	0	0	0	0	0	1	-360	360;
	26	25	0	0.0382	0	0	0	0	0.96	0	1	-360	360;
	25	27	0.0318	0.163	0.1764	0	0	0	0	0	1	-360	360;
	27	28	0.01913	0.0855	0.0216	0	0	0	0	0	1	-360	360;
	28	29	0.0237	0.0943	0.0238	0	0	0	0	0	1	-360	360;
	30	17	0	0.0388	0	0	0	0	0.96	0	1	-360	360;
	8	30	0.00431	0.0504	0.514	0	0	0	0	0	1	-360	360;
	26	30	0.00799	0.086	0.908	0	0	0	0	0	1	-360	360;
	17	31	0.0474	0.1563	0.0399	0	0	0	0	0	1	-360	360;
	29	31	0.0108	0.0331	0.0083	0	0	0	0	0	1	-360	360;
	23	32	0.0317	0.1153	0.1173	0	0	0	0	0	1	-360	360;
	31	32	0.0298	0.0985	0.0251	0	0	0	0	0	1	-360	360;
	27	32	0.0229	0.0755	0.01926	0	0	0	0	0	1	-360	360;
	15	33	0.038	0.1244	0.03194	0	0	0	0	0	1	-360	360;
	19	34	0.0752	0.247	0.0632	0	0	0	0	0	1	-360	360;
	35	36	0.00224	0.0102	0.00268	0	0	0	0	0	1	-360	360;
	35	37	0.011	0.0497	0.01318	0	0	0	0	0	1	-360	360;
	33	37	0.0415	0.142	0.0366	0	0	0	0	0	1	-360	360;
	34	36	0.00871	0.0268	0.00568	0	0	0	0	0	1	-360	360;
	34	37	0.00256	0.0094	0.00984	0	0	0	0	0	1	-360	360;
	38	37	0	0.0375	0	0	0	0	0.935	0	1	-360	360;
	37	39	0.0321	0.106	0.027	0	0	0	0	0	1	-360	360;
	37	40	0.0593	0.168	0.042	0	0	0	0	0	1	-360	360;
	30	38	0.00464	0.054	0.422	0	0	0	0	0	1	-360	360;
	39	40	0.0184	0.0605	0.01552	0	0	0	0	0	1	-360	360;
	40	41	0.0145	0.0487	0.01222	0	0	0	0	0	1	-360	360;
	40	42	0.0555	0.183	0.0466	0	0	0	0	0	1	-360	360;
	41	42	0.041	0.135	0.0344	0	0	0	0	0	1	-360	360;
	43	44	0.0608	0.2454	0.06068	0	0	0	0	0	1	-360	360;
	34	43	0.0413	0.1681	0.04226	0	0	0	0	0	1	-360	360;
	44	45	0.0224	0.0901	0.0224	0	0	0	0	0	1	-360	360;
	45	46	0.04	0.1356	0.0332	0	0	0	0	0	1	-360	360;
	46	47	0.038	0.127	0.0316	0	0	0	0	0	1	-360	360;
	46	48	0.0601	0.189	0.0472	0	0	0	0	0	1	-360	360;
	47	49	0.0191	0.0625	0.01604	0	0	0	0	0	1	-360	360;
	42	49	0.0715	0.323	0.086	0	0	0	0	0	1	-360	360;
	42	49	0.0715	0.323	0.086	0	0	0	0	0	1	-360	360;
	45	49	0.0684	0.186	0.0444	0	0	0	0	0	1	-360	360;
	48	49	0.0179	0.0505	0.01258	0	0	0	0	0	1	-360	360;
	49	50	0.0267	0.0752	0.01874	0	0	0	0	0	1	-360	360;
	49	51	0.0486	0.137	0.0342	0	0	0	0	0	1	-360	360;
	51	52	0.0203	0.0588	0.01396	0	0	0	0	0	1	-360	360;
	52	53	0.0405	0.1635	0.04058	0	0	0	0	0	1	-360	360;
	53	54	0.0263	0.122	0.031	0	0	0	0	0	1	-360	360;
	49	54	0.073	0.289	0.0738	0	0	0	0	0	1	-360	360;
	49	54	0.0869	0.291	0.073	0	0	0	0	0	1	-360	360;
	54	55	0.0169	0.0707	0.0202	0	0	0	0	0	1	-360	360;
	54	56	0.00275	0.00955	0.00732	0	0	0	0	0	1	-360	360;
	55	56	0.00488	0.0151	0.00374	0	0	0	0	0	1	-360	360;
	56	57	0.0343	0.0966	0.0242	0	0	0	0	0	1	-360	360;
	50	57	0.0474	0.134	0.0332	0	0	0	0	0	1	-360	360;
	56	58	0.0343	0.0966	0.0242	0	0	0	0	0	1	-360	360;
	51	58	0.0255	0.0719	0.01788	0	0	0	0	0	1	-360	360;
	54	59	0.0503	0.2293	0.0598	0	0	0	0	0	1	-360	360;
	56	59	0.0825	0.251	0.0569	0	0	0	0	0	1	-360	360;
	56	59	0.0803	0.239	0.0536	0	0	0	0	0	1	-360	360;
	55	59	0.04739	0.2158	0.05646	0	0	0	0	0	1	-360	360;
	59	60	0.0317	0.145	0.0376	0	0	0	0	0	1	-360	360;
	59	61	0.0328	0.15	0.0388	0	0	0	0	0	1	-360	360;
	60	61	0.00264	0.0135	0.01456	0	0	0	0	0	1	-360	360;
	60	62	0.0123	0.0561	0.01468	0	0	0	0	0	1	-360	360;
	61	62	0.00824	0.0376	0.0098	0	0	0	0	0	1	-360	360;
	63	59	0	0.0386	0	0	0	0	0.96	0	1	-360	360;
	63	64	0.00172	0.02	0.216	0	0	0	0	0	1	-360	360;
	64	61	0	0.0268	0	0	0	0	0.985	0	1	-360	360;
	38	65	0.00901	0.0986	1.046	0	0	0	0	0	1	-360	360;
	64	65	0.00269	0.0302	0.38	0	0	0	0	0	1	-360	360;
	49	66	0.018	0.0919	0.0248	0	0	0	0	0	1	-360	360;
	49	66	0.018	0.0919	0.0248	0	0	0	0	0	1	-360	360;
	62	66	0.0482	0.218	0.0578	0	0	0	0	0	1	-360	360;
	62	67	0.0258	0.117	0.031	0	0	0	0	0	1	-360	360;
	65	66	0	0.037	0	0	0	0	0.935	0	1	-360	360;
	66	67	0.0224	0.1015	0.02682	0	0	0	0	0	1	-360	360;
	65	68	0.00138	0.016	0.638	0	0	0	0	0	1	-360	360;
	47	69	0.0844	0.2778	0.07092	0	0	0	0	0	1	-360	360;
	49	69	0.0985	0.324	0.0828	0	0	0	0	0	1	-360	360;
	68	69	0	0.037	0	0	0	0	0.935	0	1	-360	360;
	69	70	0.03	0.127	0.122	0	0	0	0	0	1	-360	360;
	24	70	0.00221	0.4115	0.10198	0	0	0	0	0	1	-360	360;
	70	71	0.00882	0.0355	0.00878	0	0	0	0	0	1	-360	360;
	24	72	0.0488	0.196	0.0488	0	0	0	0	0	1	-360	360;
	71	72	0.0446	0.18	0.04444	0	0	0	0	0	1	-360	360;
	71	73	0.00866	0.0454	0.01178	0	0	0	0	0	1	-360	360;
	70	74	0.0401	0.1323	0.03368	0	0	0	0	0	1	-360	360;
	70	75	0.0428	0.141	0.036	0	0	0	0	0	1	-360	360;
	69	75	0.0405	0.122	0.124	0	0	0	0	0	1	-360	360;
	74	75	0.0123	0.0406	0.01034	0	0	0	0	0	1	-360	360;
	76	77	0.0444	0.148	0.0368	0	0	0	0	0	1	-360	360;
	69	77	0.0309	0.101	0.1038	0	0	0	0	0	1	-360	360;
	75	77	0.0601	0.1999	0.04978	0	0	0	0	0	1	-360	360;
	77	78	0.00376	0.0124	0.01264	0	0	0	0	0	1	-360	360;
	78	79	0.00546	0.0244	0.00648	0	0	0	0	0	1	-360	360;
	77	80	0.017	0.0485	0.0472	0	0	0	0	0	1	-360	360;
	77	80	0.0294	0.105	0.0228	0	0	0	0	0	1	-360	360;
	79	80	0.0156	0.0704	0.0187	0	0	0	0	0	1	-360	360;
	68	81	0.00175	0.0202	0.808	0	0	0	0	0	1	-360	360;
	81	80	0	0.037	0	0	0	0	0.935	0	1	-360	360;
	77	82	0.0298	0.0853	0.08174	0	0	0	0	0	1	-360	360;
	82	83	0.0112	0.03665	0.03796	0	0	0	0	0	1	-360	360;
	83	84	0.0625	0.132	0.0258	0	0	0	0	0	1	-360	360;
	83	85	0.043	0.148	0.0348	0	0	0	0	0	1	-360	360;
	84	85	0.0302	0.0641	0.01234	0	0	0	0	0	1	-360	360;
	85	86	0.035	0.123	0.0276	0	0	0	0	0	1	-360	360;
	86	87	0.02828	0.2074	0.0445	0	0	0	1	0	1	-360	360;
	85	88	0.02	0.102	0.0276	0	0	0	0	0	1	-360	360;
	85	89	0.0239	0.173	0.047	0	0	0	0	0	1	-360	360;
	88	89	0.0139	0.0712	0.01934	0	0	0	0	0	1	-360	360;
	89	90	0.0518	0.188	0.0528	0	0	0	0	0	1	-360	360;
	89	90	0.0238	0.0997	0.106	0	0	0	0	0	1	-360	360;
	90	91	0.0254	0.0836	0.0214	0	0	0	0	0	1	-360	360;
	89	92	0.0099	0.0505	0.0548	0	0	0	0	0	1	-360	360;
	89	92	0.0393	0.1581	0.0414	0	0	0	0	0	1	-360	360;
	91	92	0.0387	0.1272	0.03268	0	0	0	0	0	1	-360	360;
	92	93	0.0258	0.0848	0.0218	0	0	0	0	0	1	-360	360;
	92	94	0.0481	0.158	0.0406	0	0	0	0	0	1	-360	360;
	93	94	0.0223	0.0732	0.01876	0	0	0	0	0	1	-360	360;
	94	95	0.0132	0.0434	0.0111	0	0	0	0	0	1	-360	360;
	80	96	0.0356	0.182	0.0494	0	0	0	0	0	1	-360	360;
	82	96	0.0162	0.053	0.0544	0	0	0	0	0	1	-360	360;
	94	96	0.0269	0.0869	0.023	0	0	0	0	0	1	-360	360;
	80	97	0.0183	0.0934	0.0254	0	0	0	0	0	1	-360	360;
	80	98	0.0238	0.108	0.0286	0	0	0	0	0	1	-360	360;
	80	99	0.0454	0.206	0.0546	0	0	0	0	0	1	-360	360;
	92	100	0.0648	0.295	0.0472	0	0	0	0	0	1	-360	360;
	94	100	0.0178	0.058	0.0604	0	0	0	0	0	1	-360	360;
	95	96	0.0171	0.0547	0.01474	0	0	0	0	0	1	-360	360;
	96	97	0.0173	0.0885	0.024	0	0	0	0	0	1	-360	360;
	98	100	0.0397	0.179	0.0476	0	0	0	0	0	1	-360	360;
	99	100	0.018	0.0813	0.0216	0	0	0	0	0	1	-360	360;
	100	101	0.0277	0.1262	0.0328	0	0	0	0	0	1	-360	360;
	92	102	0.0123	0.0559	0.01464	0	0	0	0	0	1	-360	360;
	101	102	0.0246	0.112	0.0294	0	0	0	0	0	1	-360	360;
	100	103	0.016	0.0525	0.0536	0	0	0	0	0	1	-360	360;
	100	104	0.0451	0.204	0.0541	0	0	0	0	0	1	-360	360;
	103	104	0.0466	0.1584	0.0407	0	0	0	0	0	1	-360	360;
	103	105	0.0535	0.1625	0.0408	0	0	0	0	0	1	-360	360;
	100	106	0.0605	0.229	0.062	0	0	0	0	0	1	-360	360;
	104	105	0.00994	0.0378	0.00986	0	0	0	0	0	1	-360	360;
	105	106	0.014	0.0547	0.01434	0	0	0	0	0	1	-360	360;
	105	107	0.053	0.183	0.0472	0	0	0	0	0	1	-360	360;
	105	108	0.0261	0.0703	0.01844	0	0	0	0	0	1	-360	360;
	106	107	0.053	0.183	0.0472	0	0	0	0	0	1	-360	360;
	108	109	0.0105	0.0288	0.0076	0	0	0	0	0	1	-360	360;
	103	110	0.03906	0.1813	0.0461	0	0	0	0	0	1	-360	360;
	109	110	0.0278	0.0762	0.0202	0	0	0	0	0	1	-360	360;
	110	111	0.022	0.0755	0.02	0	0	0	0	0	1	-360	360;
	110	112	0.0247	0.064	0.062	0	0	0	0	0	1	-360	360;
	17	113	0.00913	0.0301	0.00768	0	0	0	0	0	1	-360	360;
	32	113	0.0615	0.203	0.0518	0	0	0	0	0	1	-360	360;
	32	114	0.0135	0.0612	0.01628	0	0	0	0	0	1	-360	360;
	27	115	0.0164	0.0741	0.01972	0	0	0	0	0	1	-360	360;
	114	115	0.0023	0.0104	0.00276	0	0	0	0	0	1	-360	360;
	68	116	0.00034	0.00405	0.164	0	0	0	1	0	1	-360	360;
	12	117	0.0329	0.14	0.0358	0	0	0	0	0	1	-360	360;
	75	118	0.0145	0.0481	0.01198	0	0	0	0	0	1	-360	360;
	76	118	0.0164	0.0544	0.01356	0	0	0	0	0	1	-360	360;
];

%%-----  OPF Data  -----%%
%% generator cost data
%	1	startup	shutdown	n	x1	y1	...	xn	yn
%	2	startup	shutdown	n	c(n-1)	...	c0
mpc.gencost = [
	2	0	0	3	0.01	40	0;
	2	0	0	3	0.01	40	0;
	2	0	0	3	0.01	40	0;
	2	0	0	3	0.01	40	0;
	2	0	0	3	0.0222222222	20	0;
	2	0	0	3	0.117647059	20	0;
	2	0	0	3	0.01	40	0;
	2	0	0	3	0.01	40	0;
	2	0	0	3	0.01	40	0;
	2	0	0	3	0.01	40	0;
	2	0	0	3	0.0454545455	20	0;
	2	0	0	3	0.0318471338	20	0;
	2	0	0	3	0.01	40	0;
	2	0	0	3	1.42857143	20	0;
	2	0	0	3	0.01	40	0;
	2	0	0	3	0.01	40	0;
	2	0	0	3	0.01	40	0;
	2	0	0	3	0.01	40	0;
	2	0	0	3	0.01	40	0;
	2	0	0	3	0.526315789	20	0;
	2	0	0	3	0.0490196078	20	0;
	2	0	0	3	0.208333333	20	0;
	2	0	0	3	0.01	40	0;
	2	0	0	3	0.01	40	0;
	2	0	0	3	0.064516129	20	0;
	2	0	0	3	0.0625	20	0;
	2	0	0	3	0.01	40	0;
	2	0	0	3	0.0255754476	20	0;
	2	0	0	3	0.0255102041	20	0;
	2	0	0	3	0.0193648335	20	0;
	2	0	0	3	0.01	40	0;
	2	0	0	3	0.01	40	0;
	2	0	0	3	0.01	40	0;
	2	0	0	3	0.01	40	0;
	2	0	0	3	0.01	40	0;
	2	0	0	3	0.01	40	0;
	2	0	0	3	0.0209643606	20	0;
	2	0	0	3	0.01	40	0;
	2	0	0	3	2.5	20	0;
	2	0	0	3	0.0164744646	20	0;
	2	0	0	3	0.01	40	0;
	2	0	0	3	0.01	40	0;
	2	0	0	3	0.01	40	0;
	2	0	0	3	0.01	40	0;
	2	0	0	3	0.0396825397	20	0;
	2	0	0	3	0.25	20	0;
	2	0	0	3	0.01	40	0;
	2	0	0	3	0.01	40	0;
	2	0	0	3	0.01	40	0;
	2	0	0	3	0.01	40	0;
	2	0	0	3	0.277777778	20	0;
	2	0	0	3	0.01	40	0;
	2	0	0	3	0.01	40	0;
	2	0	0	3	0.01	40	0;
];

%% bus names
mpc.bus_name = {
	'Riversde  V2';
	'Pokagon   V2';
	'HickryCk  V2';
	'NwCarlsl  V2';
	'Olive     V2';
	'Kankakee  V2';
	'JacksnRd  V2';
	'Olive     V1';
	'Bequine   V1';
	'Breed     V1';
	'SouthBnd  V2';
	'TwinBrch  V2';
	'Concord   V2';
	'GoshenJt  V2';
	'FtWayne   V2';
	'N. E.     V2';
	'Sorenson  V2';
	'McKinley  V2';
	'Lincoln   V2';
	'Adams     V2';
	'Jay       V2';
	'Randolph  V2';
	'CollCrnr  V2';
	'Trenton   V2';
	'TannrsCk  V2';
	'TannrsCk  V1';
	'Madison   V2';
	'Mullin    V2';
	'Grant     V2';
	'Sorenson  V1';
	'DeerCrk   V2';
	'Delaware  V2';
	'Haviland  V2';
	'Rockhill  V2';
	'WestLima  V2';
	'Sterling  V2';
	'EastLima  V2';
	'EastLima  V1';
	'NwLibrty  V2';
	'West End  V2';
	'S.Tiffin  V2';
	'Howard    V2';
	'S.Kenton  V2';
	'WMVernon  V2';
	'N.Newark  V2';
	'W.Lancst  V2';
	'Crooksvl  V2';
	'Zanesvll  V2';
	'Philo     V2';
	'WCambrdg  V2';
	'Newcmrst  V2';
	'SCoshoct  V2';
	'Wooster   V2';
	'Torrey    V2';
	'Wagenhls  V2';
	'Sunnysde  V2';
	'WNwPhil1  V2';
	'WNwPhil2  V2';
	'Tidd      V2';
	'SWKammer  V2';
	'W.Kammer  V2';
	'Natrium   V2';
	'Tidd      V1';
	'Kammer    V1';
	'Muskngum  V1';
	'Muskngum  V2';
	'Summerfl  V2';
	'Sporn     V1';
	'Sporn     V2';
	'Portsmth  V2';
	'NPortsmt  V2';
	'Hillsbro  V2';
	'Sargents  V2';
	'Bellefnt  V2';
	'SthPoint  V2';
	'Darrah    V2';
	'Turner    V2';
	'Chemical  V2';
	'CapitlHl  V2';
	'CabinCrk  V2';
	'Kanawha   V1';
	'Logan     V2';
	'Sprigg    V2';
	'BetsyLne  V2';
	'BeaverCk  V2';
	'Hazard    V2';
	'Pinevlle  V3';
	'Fremont   V2';
	'ClinchRv  V2';
	'Holston   V2';
	'HolstonT  V2';
	'Saltvlle  V2';
	'Tazewell  V2';
	'Switchbk  V2';
	'Caldwell  V2';
	'Baileysv  V2';
	'Sundial   V2';
	'Bradley   V2';
	'Hinton    V2';
	'Glen Lyn  V2';
	'Wythe     V2';
	'Smythe    V2';
	'Claytor   V2';
	'Hancock   V2';
	'Roanoke   V2';
	'Cloverdl  V2';
	'Reusens   V2';
	'Blaine    V2';
	'Franklin  V2';
	'Fieldale  V2';
	'DanRiver  V2';
	'Danville  V2';
	'Deer Crk  V2';
	'WMedford  V2';
	'Medford   V2';
	'KygerCrk  V2';
	'Corey     V2';
	'WHuntngd  V2';
};

% Warnings from cdf2matp conversion:
%
% ***** check the title format in the first line of the cdf file.
% ***** negative Pg at bus 4 treated as Pd
% ***** negative Pg at bus 8 treated as Pd
% ***** negative Pg at bus 24 treated as Pd
% ***** negative Pg at bus 27 treated as Pd
% ***** negative Pg at bus 40 treated as Pd
% ***** negative Pg at bus 42 treated as Pd
% ***** negative Pg at bus 72 treated as Pd
% ***** negative Pg at bus 73 treated as Pd
% ***** negative Pg at bus 90 treated as Pd
% ***** negative Pg at bus 91 treated as Pd
% ***** negative Pg at bus 99 treated as Pd
% ***** negative Pg at bus 107 treated as Pd
% ***** negative Pg at bus 112 treated as Pd
% ***** negative Pg at bus 113 treated as Pd
% ***** negative Pg at bus 116 treated as Pd
% ***** Insufficient generation, setting Pmax at slack bus (bus 69) to 805.2
% ***** MVA limit of branch 1 - 2 not given, set to 0
% ***** MVA limit of branch 1 - 3 not given, set to 0
% ***** MVA limit of branch 4 - 5 not given, set to 0
% ***** MVA limit of branch 3 - 5 not given, set to 0
% ***** MVA limit of branch 5 - 6 not given, set to 0
% ***** MVA limit of branch 6 - 7 not given, set to 0
% ***** MVA limit of branch 8 - 9 not given, set to 0
% ***** MVA limit of branch 8 - 5 not given, set to 0
% ***** MVA limit of branch 9 - 10 not given, set to 0
% ***** MVA limit of branch 4 - 11 not given, set to 0
% ***** MVA limit of branch 5 - 11 not given, set to 0
% ***** MVA limit of branch 11 - 12 not given, set to 0
% ***** MVA limit of branch 2 - 12 not given, set to 0
% ***** MVA limit of branch 3 - 12 not given, set to 0
% ***** MVA limit of branch 7 - 12 not given, set to 0
% ***** MVA limit of branch 11 - 13 not given, set to 0
% ***** MVA limit of branch 12 - 14 not given, set to 0
% ***** MVA limit of branch 13 - 15 not given, set to 0
% ***** MVA limit of branch 14 - 15 not given, set to 0
% ***** MVA limit of branch 12 - 16 not given, set to 0
% ***** MVA limit of branch 15 - 17 not given, set to 0
% ***** MVA limit of branch 16 - 17 not given, set to 0
% ***** MVA limit of branch 17 - 18 not given, set to 0
% ***** MVA limit of branch 18 - 19 not given, set to 0
% ***** MVA limit of branch 19 - 20 not given, set to 0
% ***** MVA limit of branch 15 - 19 not given, set to 0
% ***** MVA limit of branch 20 - 21 not given, set to 0
% ***** MVA limit of branch 21 - 22 not given, set to 0
% ***** MVA limit of branch 22 - 23 not given, set to 0
% ***** MVA limit of branch 23 - 24 not given, set to 0
% ***** MVA limit of branch 23 - 25 not given, set to 0
% ***** MVA limit of branch 26 - 25 not given, set to 0
% ***** MVA limit of branch 25 - 27 not given, set to 0
% ***** MVA limit of branch 27 - 28 not given, set to 0
% ***** MVA limit of branch 28 - 29 not given, set to 0
% ***** MVA limit of branch 30 - 17 not given, set to 0
% ***** MVA limit of branch 8 - 30 not given, set to 0
% ***** MVA limit of branch 26 - 30 not given, set to 0
% ***** MVA limit of branch 17 - 31 not given, set to 0
% ***** MVA limit of branch 29 - 31 not given, set to 0
% ***** MVA limit of branch 23 - 32 not given, set to 0
% ***** MVA limit of branch 31 - 32 not given, set to 0
% ***** MVA limit of branch 27 - 32 not given, set to 0
% ***** MVA limit of branch 15 - 33 not given, set to 0
% ***** MVA limit of branch 19 - 34 not given, set to 0
% ***** MVA limit of branch 35 - 36 not given, set to 0
% ***** MVA limit of branch 35 - 37 not given, set to 0
% ***** MVA limit of branch 33 - 37 not given, set to 0
% ***** MVA limit of branch 34 - 36 not given, set to 0
% ***** MVA limit of branch 34 - 37 not given, set to 0
% ***** MVA limit of branch 38 - 37 not given, set to 0
% ***** MVA limit of branch 37 - 39 not given, set to 0
% ***** MVA limit of branch 37 - 40 not given, set to 0
% ***** MVA limit of branch 30 - 38 not given, set to 0
% ***** MVA limit of branch 39 - 40 not given, set to 0
% ***** MVA limit of branch 40 - 41 not given, set to 0
% ***** MVA limit of branch 40 - 42 not given, set to 0
% ***** MVA limit of branch 41 - 42 not given, set to 0
% ***** MVA limit of branch 43 - 44 not given, set to 0
% ***** MVA limit of branch 34 - 43 not given, set to 0
% ***** MVA limit of branch 44 - 45 not given, set to 0
% ***** MVA limit of branch 45 - 46 not given, set to 0
% ***** MVA limit of branch 46 - 47 not given, set to 0
% ***** MVA limit of branch 46 - 48 not given, set to 0
% ***** MVA limit of branch 47 - 49 not given, set to 0
% ***** MVA limit of branch 42 - 49 not given, set to 0
% ***** MVA limit of branch 42 - 49 not given, set to 0
% ***** MVA limit of branch 45 - 49 not given, set to 0
% ***** MVA limit of branch 48 - 49 not given, set to 0
% ***** MVA limit of branch 49 - 50 not given, set to 0
% ***** MVA limit of branch 49 - 51 not given, set to 0
% ***** MVA limit of branch 51 - 52 not given, set to 0
% ***** MVA limit of branch 52 - 53 not given, set to 0
% ***** MVA limit of branch 53 - 54 not given, set to 0
% ***** MVA limit of branch 49 - 54 not given, set to 0
% ***** MVA limit of branch 49 - 54 not given, set to 0
% ***** MVA limit of branch 54 - 55 not given, set to 0
% ***** MVA limit of branch 54 - 56 not given, set to 0
% ***** MVA limit of branch 55 - 56 not given, set to 0
% ***** MVA limit of branch 56 - 57 not given, set to 0
% ***** MVA limit of branch 50 - 57 not given, set to 0
% ***** MVA limit of branch 56 - 58 not given, set to 0
% ***** MVA limit of branch 51 - 58 not given, set to 0
% ***** MVA limit of branch 54 - 59 not given, set to 0
% ***** MVA limit of branch 56 - 59 not given, set to 0
% ***** MVA limit of branch 56 - 59 not given, set to 0
% ***** MVA limit of branch 55 - 59 not given, set to 0
% ***** MVA limit of branch 59 - 60 not given, set to 0
% ***** MVA limit of branch 59 - 61 not given, set to 0
% ***** MVA limit of branch 60 - 61 not given, set to 0
% ***** MVA limit of branch 60 - 62 not given, set to 0
% ***** MVA limit of branch 61 - 62 not given, set to 0
% ***** MVA limit of branch 63 - 59 not given, set to 0
% ***** MVA limit of branch 63 - 64 not given, set to 0
% ***** MVA limit of branch 64 - 61 not given, set to 0
% ***** MVA limit of branch 38 - 65 not given, set to 0
% ***** MVA limit of branch 64 - 65 not given, set to 0
% ***** MVA limit of branch 49 - 66 not given, set to 0
% ***** MVA limit of branch 49 - 66 not given, set to 0
% ***** MVA limit of branch 62 - 66 not given, set to 0
% ***** MVA limit of branch 62 - 67 not given, set to 0
% ***** MVA limit of branch 65 - 66 not given, set to 0
% ***** MVA limit of branch 66 - 67 not given, set to 0
% ***** MVA limit of branch 65 - 68 not given, set to 0
% ***** MVA limit of branch 47 - 69 not given, set to 0
% ***** MVA limit of branch 49 - 69 not given, set to 0
% ***** MVA limit of branch 68 - 69 not given, set to 0
% ***** MVA limit of branch 69 - 70 not given, set to 0
% ***** MVA limit of branch 24 - 70 not given, set to 0
% ***** MVA limit of branch 70 - 71 not given, set to 0
% ***** MVA limit of branch 24 - 72 not given, set to 0
% ***** MVA limit of branch 71 - 72 not given, set to 0
% ***** MVA limit of branch 71 - 73 not given, set to 0
% ***** MVA limit of branch 70 - 74 not given, set to 0
% ***** MVA limit of branch 70 - 75 not given, set to 0
% ***** MVA limit of branch 69 - 75 not given, set to 0
% ***** MVA limit of branch 74 - 75 not given, set to 0
% ***** MVA limit of branch 76 - 77 not given, set to 0
% ***** MVA limit of branch 69 - 77 not given, set to 0
% ***** MVA limit of branch 75 - 77 not given, set to 0
% ***** MVA limit of branch 77 - 78 not given, set to 0
% ***** MVA limit of branch 78 - 79 not given, set to 0
% ***** MVA limit of branch 77 - 80 not given, set to 0
% ***** MVA limit of branch 77 - 80 not given, set to 0
% ***** MVA limit of branch 79 - 80 not given, set to 0
% ***** MVA limit of branch 68 - 81 not given, set to 0
% ***** MVA limit of branch 81 - 80 not given, set to 0
% ***** MVA limit of branch 77 - 82 not given, set to 0
% ***** MVA limit of branch 82 - 83 not given, set to 0
% ***** MVA limit of branch 83 - 84 not given, set to 0
% ***** MVA limit of branch 83 - 85 not given, set to 0
% ***** MVA limit of branch 84 - 85 not given, set to 0
% ***** MVA limit of branch 85 - 86 not given, set to 0
% ***** MVA limit of branch 86 - 87 not given, set to 0
% ***** MVA limit of branch 85 - 88 not given, set to 0
% ***** MVA limit of branch 85 - 89 not given, set to 0
% ***** MVA limit of branch 88 - 89 not given, set to 0
% ***** MVA limit of branch 89 - 90 not given, set to 0
% ***** MVA limit of branch 89 - 90 not given, set to 0
% ***** MVA limit of branch 90 - 91 not given, set to 0
% ***** MVA limit of branch 89 - 92 not given, set to 0
% ***** MVA limit of branch 89 - 92 not given, set to 0
% ***** MVA limit of branch 91 - 92 not given, set to 0
% ***** MVA limit of branch 92 - 93 not given, set to 0
% ***** MVA limit of branch 92 - 94 not given, set to 0
% ***** MVA limit of branch 93 - 94 not given, set to 0
% ***** MVA limit of branch 94 - 95 not given, set to 0
% ***** MVA limit of branch 80 - 96 not given, set to 0
% ***** MVA limit of branch 82 - 96 not given, set to 0
% ***** MVA limit of branch 94 - 96 not given, set to 0
% ***** MVA limit of branch 80 - 97 not given, set to 0
% ***** MVA limit of branch 80 - 98 not given, set to 0
% ***** MVA limit of branch 80 - 99 not given, set to 0
% ***** MVA limit of branch 92 - 100 not given, set to 0
% ***** MVA limit of branch 94 - 100 not given, set to 0
% ***** MVA limit of branch 95 - 96 not given, set to 0
% ***** MVA limit of branch 96 - 97 not given, set to 0
% ***** MVA limit of branch 98 - 100 not given, set to 0
% ***** MVA limit of branch 99 - 100 not given, set to 0
% ***** MVA limit of branch 100 - 101 not given, set to 0
% ***** MVA limit of branch 92 - 102 not given, set to 0
% ***** MVA limit of branch 101 - 102 not given, set to 0
% ***** MVA limit of branch 100 - 103 not given, set to 0
% ***** MVA limit of branch 100 - 104 not given, set to 0
% ***** MVA limit of branch 103 - 104 not given, set to 0
% ***** MVA limit of branch 103 - 105 not given, set to 0
% ***** MVA limit of branch 100 - 106 not given, set to 0
% ***** MVA limit of branch 104 - 105 not given, set to 0
% ***** MVA limit of branch 105 - 106 not given, set to 0
% ***** MVA limit of branch 105 - 107 not given, set to 0
% ***** MVA limit of branch 105 - 108 not given, set to 0
% ***** MVA limit of branch 106 - 107 not given, set to 0
% ***** MVA limit of branch 108 - 109 not given, set to 0
% ***** MVA limit of branch 103 - 110 not given, set to 0
% ***** MVA limit of branch 109 - 110 not given, set to 0
% ***** MVA limit of branch 110 - 111 not given, set to 0
% ***** MVA limit of branch 110 - 112 not given, set to 0
% ***** MVA limit of branch 17 - 113 not given, set to 0
% ***** MVA limit of branch 32 - 113 not given, set to 0
% ***** MVA limit of branch 32 - 114 not given, set to 0
% ***** MVA limit of branch 27 - 115 not given, set to 0
% ***** MVA limit of branch 114 - 115 not given, set to 0
% ***** MVA limit of branch 68 - 116 not given, set to 0
% ***** MVA limit of branch 12 - 117 not given, set to 0
% ***** MVA limit of branch 75 - 118 not given, set to 0
% ***** MVA limit of branch 76 - 118 not given, set to 0

%%-----  Additional Power Flow  Data  -----%%
%% generator ramp ratio
% bus	ramp_up	ramp_dn
mpc.genramp_ratio = [
    1	0.05	0.05
];

%% load ratio in each period
% bus	t_1	t_2	t_3	t_4	t_5	t_6	t_7	t_8	t_9	t_10	t_11	t_12
mpc.load_ratio = [
    1	0.9195	0.8655	0.3509	0.7101	0.0296	0.1400	0.8454	0.9823	0.6982	0.7044	0.3825	0.6877
    2	0.5351	0.9876	0.7635	0.7631	0.2946	0.0302	0.4255	0.8317	0.8586	0.2254	0.9898	0.4422
    3	0.6121	0.0596	0.1656	0.1123	0.3750	0.4535	0.0807	0.9659	0.5426	0.9031	0.0248	0.2640
    4	0.7992	0.5385	0.4390	0.1221	0.6356	0.2044	0.3371	0.2306	0.7713	0.0145	0.7374	0.7321
    5	0.8833	0.6265	0.2356	0.8552	0.2628	0.5743	0.7810	0.0175	0.5830	0.1908	0.3056	0.2023
    6	0.0551	0.4246	0.0282	0.5738	0.4468	0.9727	0.7994	0.1226	0.9507	0.7105	0.2198	0.2377
    7	0.4212	0.8427	0.7999	0.9378	0.6982	0.1998	0.9769	0.8550	0.7735	0.7639	0.5908	0.3167
    8	0.5369	0.4320	0.4284	0.2191	0.7396	0.5856	0.9701	0.7771	0.7767	0.2028	0.6359	0.0939
    9	0.7625	0.9704	0.7500	0.7567	0.0102	0.3121	0.6177	0.2280	0.2877	0.9318	0.7788	0.6537
    10	0.6928	0.5411	0.2618	0.5990	0.0111	0.2848	0.0969	0.0970	0.4410	0.3970	0.0554	0.5549
    11	0.7093	0.6873	0.4360	0.4775	0.0006	0.5213	0.9606	0.9698	0.9062	0.1528	0.8972	0.6800
    12	0.8868	0.7184	0.4623	0.9564	0.6003	0.9015	0.5014	0.6860	0.3275	0.7017	0.1964	0.2387
    13	0.1211	0.2953	0.0874	0.8635	0.4320	0.0089	0.8607	0.5562	0.4446	0.6000	0.8837	0.9367
    14	0.0899	0.9869	0.0916	0.0771	0.2867	0.7297	0.8278	0.7872	0.4795	0.2113	0.3238	0.7003
    15	0.3313	0.2847	0.3907	0.0537	0.6405	0.2621	0.1123	0.3292	0.7352	0.3467	0.2284	0.4214
    16	0.6523	0.1877	0.9391	0.1653	0.5658	0.9091	0.6102	0.1623	0.0151	0.8922	0.4503	0.0087
    17	0.2554	0.8511	0.8917	0.3375	0.1001	0.7825	0.6295	0.5772	0.0706	0.6434	0.1247	0.8039
    18	0.2696	0.8252	0.7556	0.4273	0.2634	0.1122	0.5855	0.2635	0.6977	0.9843	0.6514	0.3408
    19	0.0716	0.3476	0.4571	0.3117	0.5589	0.1381	0.3898	0.2376	0.3386	0.5941	0.0103	0.1431
    20	0.2264	0.7014	0.1408	0.9518	0.2025	0.8105	0.8714	0.3472	0.9897	0.7437	0.5544	0.6188
    21	0.9849	0.9416	0.3880	0.0759	0.0683	0.1570	0.2694	0.4799	0.0682	0.9280	0.8814	0.2163
    22	0.8250	0.3258	0.8359	0.1083	0.6631	0.8630	0.8569	0.9627	0.8048	0.9978	0.8074	0.4398
    23	0.9012	0.5288	0.1421	0.2281	0.1878	0.6044	0.3201	0.4097	0.6369	0.4997	0.0641	0.9506
    24	0.3484	0.3847	0.5793	0.1341	0.1468	0.3350	0.3477	0.1190	0.9503	0.4272	0.2801	0.5778
    25	0.2555	0.4332	0.6455	0.3312	0.0001	0.5673	0.4798	0.0092	0.2440	0.7903	0.8426	0.8535
    26	0.2174	0.7764	0.7182	0.1602	0.0562	0.7638	0.0431	0.4307	0.1811	0.8519	0.3562	0.5114
    27	0.7739	0.3638	0.5301	0.2183	0.1735	0.6054	0.6808	0.9876	0.2866	0.9943	0.0187	0.4428
    28	0.5552	0.4835	0.5060	0.2356	0.1786	0.0214	0.6507	0.2554	0.8196	0.2842	0.5391	0.1689
    29	0.9248	0.8967	0.6575	0.2869	0.9192	0.5544	0.8637	0.8784	0.2526	0.1164	0.2909	0.6024
    30	0.4396	0.8463	0.7615	0.7170	0.0710	0.7729	0.9141	0.5316	0.5812	0.7741	0.9434	0.0754
    31	0.1067	0.3401	0.6539	0.3715	0.0091	0.6993	0.2520	0.7576	0.7861	0.7287	0.3490	0.7302
    32	0.9653	0.0990	0.7908	0.8831	0.1882	0.2162	0.0690	0.6782	0.6027	0.4771	0.8878	0.1113
    33	0.2822	0.3513	0.6260	0.6633	0.3868	0.0717	0.1528	0.8009	0.9941	0.0944	0.2377	0.4869
    34	0.9639	0.5977	0.9479	0.5439	0.2393	0.9831	0.5016	0.1467	0.3968	0.3917	0.9427	0.3897
    35	0.3649	0.1341	0.6590	0.2452	0.6280	0.4535	0.8219	0.1146	0.2890	0.0244	0.5904	0.8188
    36	0.7260	0.4340	0.7394	0.9949	0.6475	0.6486	0.5001	0.2581	0.2983	0.3970	0.2904	0.5616
    37	0.0473	0.1370	0.0233	0.2421	0.8214	0.3096	0.9269	0.2179	0.5638	0.5587	0.5988	0.2045
    38	0.3818	0.4537	0.8651	0.5075	0.9392	0.6438	0.7853	0.0830	0.1090	0.4285	0.6741	0.4044
    39	0.4480	0.3860	0.1624	0.1730	0.7710	0.8072	0.0046	0.8605	0.2577	0.3961	0.8197	0.0639
    40	0.8995	0.7377	0.4961	0.4836	0.9529	0.6038	0.1368	0.1000	0.3287	0.6297	0.0268	0.7829
    41	0.0972	0.8471	0.1930	0.2964	0.1062	0.9927	0.5557	0.9516	0.3098	0.5200	0.0841	0.3116
    42	0.0948	0.0341	0.0393	0.8904	0.6950	0.7956	0.1529	0.2682	0.2471	0.7774	0.6861	0.7023
    43	0.2549	0.3709	0.5001	0.6270	0.7274	0.2210	0.1625	0.8390	0.1275	0.6693	0.5048	0.9151
    44	0.6400	0.7138	0.6683	0.7345	0.6396	0.2686	0.6206	0.2464	0.0351	0.0105	0.9772	0.7037
    45	0.9685	0.2041	0.9976	0.7347	0.4607	0.8509	0.4267	0.2745	0.6196	0.3745	0.9718	0.6241
    46	0.2525	0.1837	0.2352	0.3202	0.7233	0.4723	0.2951	0.3131	0.7397	0.9933	0.7032	0.3255
    47	0.1133	0.6153	0.3321	0.0017	0.8544	0.7519	0.3154	0.4454	0.1145	0.9081	0.0959	0.9343
    48	0.5899	0.3707	0.3987	0.4512	0.7487	0.8628	0.1695	0.6047	0.6650	0.6031	0.0075	0.1998
    49	0.1526	0.5645	0.9714	0.2743	0.7406	0.7584	0.9810	0.5428	0.0685	0.3484	0.1753	0.2458
    50	0.1461	0.6611	0.8356	0.0039	0.9881	0.4473	0.5857	0.1330	0.8455	0.5133	0.5889	0.3489
    51	0.6400	0.7757	0.2937	0.9574	0.0431	0.8759	0.5461	0.1767	0.1603	0.3452	0.3074	0.5117
    52	0.3584	0.6301	0.1240	0.2911	0.0198	0.1728	0.8826	0.1330	0.7602	0.9254	0.0648	0.8833
    53	0.2228	0.6664	0.3841	0.8010	0.1904	0.4157	0.7075	0.4749	0.2528	0.8801	0.9147	0.0975
    54	0.1084	0.0634	0.3658	0.7970	0.6352	0.3737	0.6737	0.8078	0.3385	0.5382	0.0239	0.9951
    55	0.7340	0.1576	0.1320	0.6042	0.7612	0.3816	0.9673	0.2774	0.8730	0.8959	0.8054	0.9356
    56	0.0071	0.4096	0.0124	0.8521	0.7725	0.7192	0.8530	0.6228	0.7585	0.9738	0.8200	0.2781
    57	0.7002	0.7810	0.0924	0.2374	0.7375	0.0546	0.5226	0.4536	0.0614	0.2310	0.6208	0.8028
    58	0.9214	0.9458	0.5490	0.3822	0.9577	0.2385	0.4629	0.2663	0.8165	0.1851	0.8850	0.7582
    59	0.6785	0.8079	0.0398	0.4286	0.5904	0.8202	0.6146	0.3699	0.5861	0.3162	0.5886	0.3215
    60	0.9751	0.2202	0.7025	0.8837	0.2644	0.5889	0.9109	0.1006	0.3099	0.0126	0.0129	0.3859
    61	0.3565	0.9369	0.0245	0.3283	0.9131	0.8880	0.9708	0.5673	0.1190	0.7844	0.7451	0.2821
    62	0.7754	0.1023	0.2449	0.0124	0.6025	0.9327	0.8151	0.6506	0.7119	0.3496	0.7971	0.2651
    63	0.4639	0.2218	0.3578	0.4493	0.9458	0.9498	0.9634	0.8473	0.3006	0.5855	0.2047	0.7536
    64	0.4756	0.1630	0.2504	0.7499	0.9924	0.8224	0.7614	0.2449	0.3492	0.7447	0.5576	0.4348
    65	0.9040	0.9673	0.1744	0.9815	0.6048	0.6222	0.2578	0.0264	0.2333	0.1587	0.8490	0.5190
    66	0.7560	0.3983	0.8395	0.4590	0.6232	0.6162	0.6419	0.6459	0.6985	0.2558	0.7783	0.2844
    67	0.9259	0.3395	0.3721	0.2074	0.0946	0.0547	0.8751	0.8487	0.7075	0.8557	0.0362	0.3938
    68	0.2818	0.0104	0.1464	0.6834	0.6272	0.4923	0.7281	0.3978	0.5915	0.1693	0.1102	0.1240
    69	0.4790	0.7479	0.8494	0.0134	0.5905	0.3223	0.6932	0.9306	0.9416	0.8408	0.6559	0.1160
    70	0.5568	0.2805	0.5308	0.5180	0.0627	0.4981	0.9511	0.2639	0.1575	0.7461	0.3919	0.6783
    71	0.7897	0.4770	0.1948	0.7658	0.7060	0.7681	0.5687	0.2823	0.7428	0.4371	0.5012	0.3206
    72	0.1748	0.8213	0.1001	0.4958	0.9440	0.6616	0.4815	0.6792	0.1035	0.4412	0.5344	0.4612
    73	0.7040	0.2237	0.9592	0.3340	0.8947	0.2868	0.1361	0.4810	0.8096	0.8983	0.5998	0.4595
    74	0.1284	0.4362	0.7156	0.0691	0.6056	0.4011	0.3876	0.8115	0.6026	0.6099	0.0609	0.6825
    75	0.0060	0.6809	0.1640	0.6683	0.4322	0.5924	0.2053	0.9355	0.6404	0.5388	0.2977	0.7988
    76	0.5726	0.9865	0.5609	0.4552	0.3296	0.1575	0.8490	0.0436	0.1020	0.0483	0.3784	0.2240
    77	0.0162	0.6947	0.6412	0.8682	0.9985	0.9659	0.7258	0.1947	0.8493	0.5731	0.2280	0.2390
    78	0.3085	0.7099	0.5756	0.6312	0.1906	0.0805	0.2538	0.2555	0.3673	0.7691	0.0461	0.0308
    79	0.9469	0.6430	0.5741	0.5426	0.1505	0.3391	0.0712	0.4156	0.5573	0.4808	0.0621	0.4725
    80	0.3345	0.9716	0.6048	0.8480	0.9011	0.3138	0.3422	0.4876	0.7699	0.9007	0.8766	0.3041
    81	0.3473	0.4998	0.0985	0.1891	0.9094	0.1085	0.7287	0.6804	0.4519	0.6332	0.7362	0.9411
    82	0.6799	0.8334	0.6410	0.3770	0.8621	0.3259	0.1567	0.3583	0.1478	0.4830	0.5394	0.8024
    83	0.4871	0.8251	0.2831	0.6732	0.4963	0.9708	0.7143	0.2098	0.2727	0.0361	0.3623	0.3677
    84	0.9834	0.0613	0.2421	0.6175	0.7421	0.9691	0.6887	0.3646	0.1534	0.2739	0.6183	0.1172
    85	0.1440	0.2219	0.2662	0.4325	0.3263	0.6897	0.2188	0.9318	0.8065	0.4913	0.3114	0.2443
    86	0.3353	0.6482	0.5951	0.1578	0.0576	0.8721	0.9236	0.6048	0.5501	0.3113	0.0737	0.7671
    87	0.4189	0.4189	0.7186	0.7480	0.3362	0.7458	0.3414	0.3836	0.3333	0.4215	0.6331	0.7444
    88	0.7384	0.0102	0.7579	0.9813	0.8361	0.7416	0.5312	0.9383	0.0704	0.9043	0.8722	0.5179
    89	0.1196	0.4946	0.4090	0.6133	0.5269	0.9464	0.1633	0.9752	0.0481	0.6819	0.3898	0.4244
    90	0.5301	0.4288	0.8516	0.8374	0.1633	0.1978	0.7967	0.9640	0.4469	0.6106	0.1661	0.7226
    91	0.7555	0.5854	0.3245	0.2519	0.3888	0.1435	0.9457	0.2580	0.0777	0.8074	0.9476	0.2168
    92	0.9861	0.9152	0.3135	0.3457	0.0240	0.9830	0.5401	0.3736	0.7719	0.9015	0.4835	0.2083
    93	0.3028	0.0985	0.9971	0.3638	0.2420	0.6248	0.4703	0.5243	0.2461	0.3377	0.2821	0.6855
    94	0.3777	0.0585	0.9703	0.8654	0.3346	0.1307	0.2969	0.2848	0.1812	0.9745	0.8329	0.9737
    95	0.4093	0.6426	0.5266	0.5243	0.8954	0.3994	0.6089	0.2922	0.5384	0.1127	0.4061	0.4403
    96	0.6655	0.4156	0.4450	0.8861	0.6023	0.4924	0.7137	0.5635	0.8846	0.5164	0.5770	0.8201
    97	0.3741	0.4548	0.5291	0.5992	0.6413	0.1160	0.3480	0.1787	0.7541	0.8424	0.6094	0.5258
    98	0.6575	0.6657	0.1148	0.6460	0.3675	0.3973	0.2235	0.8171	0.9103	0.9963	0.9153	0.6437
    99	0.6356	0.6457	0.6468	0.6023	0.6137	0.6575	0.6484	0.2455	0.1899	0.0103	0.6479	0.5633
    100	0.1814	0.6002	0.2107	0.1955	0.0832	0.7270	0.2109	0.2375	0.1063	0.9721	0.7094	0.4678
    101	0.7999	0.8549	0.4483	0.4479	0.6222	0.1720	0.9755	0.2736	0.6298	0.9599	0.2466	0.1943
    102	0.8020	0.1101	0.0106	0.8347	0.7289	0.4238	0.1287	0.8250	0.9575	0.8128	0.6753	0.7758
    103	0.6266	0.4927	0.1092	0.0677	0.8925	0.9604	0.4357	0.8033	0.6955	0.4129	0.5643	0.6411
    104	0.8275	0.7338	0.4383	0.3232	0.4360	0.2112	0.7715	0.7484	0.8859	0.9018	0.6828	0.8096
    105	0.5496	0.3650	0.3293	0.1731	0.7377	0.0284	0.4655	0.8830	0.0842	0.4499	0.4456	0.3622
    106	0.7062	0.9686	0.5524	0.1138	0.0809	0.2131	0.0417	0.9229	0.8413	0.7486	0.6737	0.3077
    107	0.0357	0.1470	0.7499	0.3361	0.9133	0.0957	0.0821	0.8788	0.0255	0.8277	0.4403	0.6915
    108	0.0457	0.2739	0.8068	0.1915	0.9104	0.5249	0.6979	0.3567	0.7243	0.8844	0.3045	0.4919
    109	0.9358	0.7423	0.6838	0.2147	0.8823	0.6409	0.3000	0.4868	0.2788	0.3649	0.7210	0.7302
    110	0.2058	0.8452	0.0172	0.8635	0.5631	0.5027	0.5856	0.3174	0.9470	0.3002	0.3582	0.1435
    111	0.2394	0.5909	0.6184	0.5282	0.4798	0.5622	0.3591	0.1798	0.6231	0.8204	0.8157	0.2839
    112	0.2442	0.8387	0.8844	0.0445	0.1173	0.6512	0.9450	0.0841	0.4749	0.1514	0.8911	0.0622
    113	0.7404	0.7045	0.1127	0.1969	0.3542	0.1977	0.3975	0.2506	0.6405	0.9877	0.7399	0.6128
    114	0.3456	0.1860	0.1550	0.9609	0.8806	0.5934	0.7573	0.6366	0.8956	0.1247	0.0252	0.2114
    115	0.1549	0.9210	0.3711	0.1667	0.6886	0.2934	0.9831	0.3800	0.3376	0.7170	0.4261	0.1407
    116	0.4251	0.2686	0.4020	0.1890	0.3348	0.3386	0.1127	0.8356	0.0171	0.0888	0.3596	0.2259
    117	0.5715	0.9135	0.7648	0.8229	0.6390	0.2410	0.8750	0.8914	0.0045	0.3567	0.8683	0.1926
    118	0.7052	0.7708	0.3351	0.7408	0.8883	0.9696	0.3873	0.8149	0.4384	0.3881	0.5419	0.7600
];

%% wind power output ratio to Pd
% bus	t_1	t_2	t_3	t_4	t_5	t_6	t_7	t_8	t_9	t_10	t_11	t_12
mpc.Pw_ratio = [
    1	0.9630	0.4412	0.1343	0.8010	0.7636	0.0229	0.5036	0.4566	0.5111	0.2870	0.7497	0.4068
    2	0.1994	0.1715	0.4262	0.5631	0.4326	0.5966	0.9982	0.3077	0.7397	0.6182	0.9636	0.2372
    3	0.5298	0.4074	0.0331	0.6494	0.5255	0.4195	0.4638	0.8381	0.0789	0.9352	0.1273	0.3689
    4	0.0197	0.6260	0.6749	0.8181	0.7779	0.8099	0.0906	0.7438	0.4577	0.6691	0.8788	0.0577
    5	0.4345	0.9682	0.9193	0.6402	0.3984	0.6140	0.3559	0.9723	0.7307	0.4644	0.3590	0.1216
    6	0.6106	0.6370	0.3888	0.8826	0.4427	0.9163	0.1212	0.9735	0.2943	0.5609	0.6314	0.2215
    7	0.2164	0.8687	0.5289	0.2452	0.9592	0.2879	0.0895	0.5105	0.2435	0.3339	0.3444	0.1440
    8	0.8720	0.1351	0.4403	0.4025	0.2858	0.2457	0.2313	0.6757	0.2916	0.4561	0.9215	0.2259
    9	0.8868	0.6413	0.2569	0.9804	0.7589	0.5887	0.2908	0.2932	0.0359	0.7127	0.3461	0.9883
    10	0.4163	0.2160	0.0028	0.0411	0.9081	0.4805	0.1974	0.0885	0.3084	0.3502	0.4498	0.8347
    11	0.7982	0.5893	0.8297	0.8841	0.2914	0.4272	0.3939	0.4396	0.2214	0.0518	0.7248	0.2412
    12	0.2855	0.6674	0.4386	0.4909	0.6294	0.9614	0.5725	0.1105	0.9906	0.3292	0.4267	0.6918
    13	0.9487	0.8945	0.3342	0.0553	0.0651	0.3869	0.6917	0.5424	0.1324	0.0074	0.6572	0.9054
    14	0.1387	0.0123	0.1891	0.2323	0.0301	0.8231	0.8235	0.8615	0.7952	0.4179	0.4433	0.7174
    15	0.3268	0.4107	0.3287	0.1348	0.7477	0.2320	0.4452	0.7956	0.6812	0.0282	0.5608	0.2806
    16	0.2691	0.1581	0.2185	0.2931	0.5537	0.9141	0.6272	0.7156	0.3185	0.6896	0.5925	0.9222
    17	0.6225	0.9382	0.2622	0.4374	0.7465	0.5345	0.8438	0.9977	0.9173	0.1048	0.3308	0.6046
    18	0.7812	0.8448	0.9256	0.7701	0.2685	0.9687	0.3970	0.4149	0.4137	0.5445	0.0021	0.0878
    19	0.1312	0.4529	0.8516	0.9441	0.2834	0.1554	0.7266	0.3695	0.9332	0.8332	0.4881	0.4979
    20	0.9850	0.8144	0.7023	0.4143	0.4021	0.6527	0.3495	0.2021	0.0743	0.4238	0.2162	0.9661
    21	0.6245	0.3639	0.7933	0.1168	0.4976	0.6030	0.9685	0.8996	0.3899	0.8793	0.2578	0.8844
    22	0.5831	0.5011	0.2573	0.6474	0.0408	0.6010	0.5168	0.3545	0.4918	0.2259	0.9099	0.9767
    23	0.0992	0.5123	0.8495	0.8285	0.6304	0.6135	0.7420	0.1413	0.4536	0.0484	0.8433	0.4251
    24	0.2652	0.8801	0.5526	0.7469	0.6731	0.3905	0.5801	0.9425	0.4896	0.0354	0.9423	0.8559
    25	0.4961	0.4680	0.4961	0.7696	0.7061	0.3865	0.1232	0.8902	0.6041	0.6230	0.9391	0.4543
    26	0.5074	0.7053	0.5577	0.9072	0.1995	0.5701	0.3106	0.5511	0.8037	0.6006	0.6315	0.0218
    27	0.3890	0.7447	0.9854	0.0816	0.4858	0.6191	0.4652	0.0652	0.0439	0.7556	0.4699	0.3306
    28	0.8430	0.0711	0.0137	0.4469	0.6005	0.0887	0.6971	0.6694	0.2133	0.5945	0.3910	0.2108
    29	0.3645	0.1866	0.8662	0.5466	0.7188	0.9856	0.2676	0.5247	0.4943	0.5190	0.3766	0.8615
    30	0.5095	0.7255	0.6590	0.7459	0.2861	0.6910	0.0315	0.0007	0.3392	0.9311	0.3294	0.4419
    31	0.6784	0.8457	0.8158	0.3876	0.9098	0.1266	0.8050	0.3681	0.5607	0.2499	0.2122	0.5585
    32	0.3035	0.5405	0.7692	0.0434	0.8798	0.4203	0.4980	0.7410	0.1519	0.8750	0.5815	0.5140
    33	0.8671	0.0571	0.5276	0.0467	0.6425	0.7006	0.2764	0.3523	0.3519	0.6158	0.7485	0.6703
    34	0.5581	0.6953	0.3877	0.6626	0.3134	0.3639	0.4025	0.0313	0.4683	0.8172	0.8737	0.2583
    35	0.7688	0.4139	0.7641	0.9231	0.4685	0.7779	0.9881	0.9109	0.3574	0.3677	0.7282	0.5665
    36	0.6261	0.1163	0.1838	0.3074	0.5990	0.9220	0.3525	0.0527	0.4417	0.3055	0.9355	0.6946
    37	0.6258	0.9953	0.7504	0.8900	0.6446	0.6733	0.7559	0.3651	0.6706	0.8067	0.4481	0.6102
    38	0.0063	0.4269	0.1941	0.9915	0.8915	0.0592	0.9464	0.1255	0.1136	0.6080	0.7133	0.9268
    39	0.0129	0.7351	0.6610	0.1507	0.7726	0.6315	0.1685	0.9684	0.0667	0.1470	0.4652	0.1075
    40	0.6124	0.7064	0.9747	0.5567	0.9954	0.2063	0.4369	0.6336	0.6952	0.0527	0.0257	0.1610
    41	0.0585	0.2121	0.4215	0.8488	0.1486	0.0614	0.6430	0.4353	0.8931	0.5359	0.8940	0.5454
    42	0.2419	0.8987	0.9481	0.9811	0.3073	0.2440	0.0745	0.1456	0.6348	0.1935	0.2516	0.1669
    43	0.1110	0.4502	0.4779	0.1142	0.0558	0.6840	0.2460	0.0116	0.3718	0.3281	0.6406	0.3776
    44	0.0278	0.8179	0.1596	0.1697	0.7044	0.1046	0.8680	0.0996	0.4854	0.7315	0.1502	0.0540
    45	0.2205	0.2149	0.9306	0.2796	0.0775	0.0254	0.5566	0.6309	0.5338	0.9252	0.6636	0.8876
    46	0.3290	0.3607	0.4402	0.3946	0.9826	0.3260	0.8176	0.3992	0.5442	0.7855	0.6274	0.6953
    47	0.3233	0.0974	0.3080	0.0636	0.8216	0.8658	0.0582	0.1810	0.9332	0.8841	0.2133	0.0049
    48	0.7325	0.6495	0.7412	0.9538	0.7879	0.0044	0.3622	0.9432	0.0468	0.0301	0.7461	0.7444
    49	0.2965	0.8325	0.7114	0.1433	0.3859	0.6942	0.3533	0.0018	0.7602	0.1708	0.7137	0.5103
    50	0.9935	0.7406	0.4575	0.9065	0.4179	0.8922	0.1065	0.2424	0.4863	0.8138	0.0153	0.6341
    51	0.3868	0.1551	0.4178	0.2791	0.4906	0.9735	0.1473	0.2459	0.3233	0.2023	0.0040	0.5719
    52	0.7616	0.4921	0.0214	0.5301	0.1593	0.4563	0.3444	0.5254	0.3636	0.9398	0.8416	0.0516
    53	0.8628	0.8583	0.8011	0.7796	0.7574	0.5692	0.7469	0.9687	0.7239	0.2916	0.4473	0.6386
    54	0.5906	0.2642	0.6260	0.0571	0.5208	0.9235	0.6427	0.6410	0.9948	0.1483	0.5652	0.4333
    55	0.3018	0.9238	0.4710	0.8289	0.3878	0.8078	0.0287	0.5515	0.8820	0.1700	0.3267	0.3763
    56	0.3639	0.0740	0.5144	0.5143	0.8717	0.8557	0.9353	0.1085	0.6173	0.1694	0.4075	0.0368
    57	0.3444	0.8718	0.6536	0.3482	0.9185	0.3255	0.1298	0.6939	0.5082	0.1494	0.9732	0.4308
    58	0.0306	0.3083	0.8771	0.9431	0.8484	0.6160	0.9108	0.8933	0.0894	0.0815	0.0794	0.1266
    59	0.8068	0.6112	0.8500	0.4905	0.2900	0.9089	0.2458	0.2727	0.7923	0.8698	0.7736	0.2201
    60	0.2418	0.6023	0.2092	0.2279	0.8551	0.8674	0.8809	0.5254	0.4657	0.7268	0.7400	0.2656
    61	0.3487	0.6213	0.7284	0.2541	0.3157	0.8917	0.8013	0.3841	0.3932	0.7739	0.0462	0.0464
    62	0.0219	0.8984	0.9262	0.9365	0.4260	0.4145	0.4776	0.5801	0.6821	0.1705	0.9481	0.0686
    63	0.5406	0.9070	0.5674	0.7534	0.8317	0.3467	0.5436	0.2144	0.5573	0.9697	0.8018	0.0498
    64	0.0837	0.5153	0.7523	0.6942	0.5838	0.1895	0.0037	0.6380	0.7376	0.3507	0.6981	0.6309
    65	0.9553	0.5167	0.1256	0.8143	0.9993	0.6328	0.9003	0.5004	0.9134	0.8691	0.4087	0.1105
    66	0.5942	0.6695	0.9481	0.6938	0.1462	0.5075	0.8316	0.7216	0.5172	0.4137	0.4432	0.0112
    67	0.5385	0.7739	0.3712	0.6871	0.9552	0.5716	0.4203	0.3365	0.8320	0.9143	0.0059	0.9508
    68	0.3725	0.0300	0.5837	0.5505	0.1970	0.4119	0.7773	0.5589	0.9184	0.8366	0.8607	0.0039
    69	0.4782	0.7494	0.8425	0.8616	0.2297	0.5460	0.6826	0.7993	0.4591	0.7864	0.1867	0.1935
    70	0.6954	0.9014	0.0100	0.3332	0.8905	0.5164	0.8153	0.2646	0.3423	0.0108	0.2508	0.0462
    71	0.1426	0.8893	0.9040	0.9421	0.6949	0.4614	0.0851	0.4808	0.4542	0.3983	0.8830	0.7943
    72	0.5840	0.3733	0.8985	0.5466	0.4504	0.8469	0.1595	0.8873	0.2038	0.0259	0.3143	0.4018
    73	0.9541	0.8924	0.6776	0.9589	0.9536	0.8354	0.4353	0.9295	0.4955	0.0806	0.3353	0.0866
    74	0.8467	0.8446	0.9316	0.1474	0.8856	0.4676	0.3946	0.9433	0.8737	0.0718	0.6384	0.0019
    75	0.9309	0.6170	0.1593	0.7809	0.7649	0.3752	0.5595	0.4153	0.4256	0.8764	0.0860	0.1997
    76	0.3367	0.8316	0.1135	0.0451	0.1597	0.9378	0.0332	0.1358	0.2923	0.0973	0.8070	0.4316
    77	0.4867	0.8532	0.7259	0.2953	0.9621	0.6510	0.5312	0.5839	0.2672	0.1115	0.1669	0.6126
    78	0.1435	0.1634	0.3347	0.8948	0.9486	0.3822	0.8099	0.4367	0.1673	0.8460	0.9208	0.6957
    79	0.2108	0.1467	0.1185	0.0366	0.2722	0.8870	0.5648	0.2771	0.4189	0.7225	0.8802	0.6234
    80	0.4942	0.3374	0.5283	0.9479	0.0510	0.0307	0.8638	0.0535	0.5483	0.8102	0.4488	0.4412
    81	0.8034	0.3663	0.1836	0.1687	0.4987	0.3572	0.4830	0.7615	0.2653	0.0235	0.9374	0.5488
    82	0.4762	0.8163	0.6453	0.4981	0.9280	0.2349	0.8484	0.2509	0.3380	0.7906	0.6097	0.5674
    83	0.3865	0.5199	0.4302	0.2887	0.6589	0.4641	0.3556	0.3506	0.3888	0.2231	0.4995	0.1448
    84	0.2844	0.4017	0.1808	0.8988	0.2305	0.9763	0.8871	0.5145	0.0480	0.2345	0.8254	0.2040
    85	0.9640	0.0277	0.3971	0.0233	0.0409	0.7034	0.8728	0.6584	0.3294	0.8968	0.9348	0.6667
    86	0.0590	0.4827	0.6641	0.3298	0.8979	0.8124	0.3555	0.1132	0.0689	0.7254	0.7299	0.3981
    87	0.6749	0.4016	0.7281	0.4620	0.2834	0.8071	0.3070	0.5865	0.9517	0.8383	0.9463	0.4433
    88	0.9908	0.5146	0.9223	0.7597	0.6405	0.2890	0.6484	0.6822	0.0617	0.9031	0.1211	0.8547
    89	0.1707	0.4494	0.4163	0.1828	0.9854	0.1624	0.6185	0.0471	0.4818	0.5735	0.3178	0.8353
    90	0.9979	0.0533	0.0797	0.8538	0.1601	0.3704	0.3383	0.7455	0.2141	0.7304	0.8266	0.4750
    91	0.3580	0.4228	0.9102	0.9122	0.9209	0.1638	0.9821	0.0975	0.0716	0.7056	0.8632	0.2404
    92	0.5258	0.1367	0.9152	0.1273	0.2493	0.8868	0.1504	0.0103	0.5108	0.6452	0.6664	0.0795
    93	0.0967	0.0601	0.0446	0.4764	0.8956	0.1102	0.1588	0.5631	0.4877	0.7874	0.0979	0.3944
    94	0.7263	0.3867	0.2361	0.2025	0.7422	0.6193	0.2588	0.0901	0.4476	0.5916	0.8289	0.9669
    95	0.7206	0.0602	0.6536	0.4983	0.9698	0.3633	0.0641	0.9498	0.9818	0.1568	0.9994	0.9312
    96	0.6089	0.4311	0.6800	0.9725	0.2342	0.0381	0.1466	0.2554	0.7654	0.7600	0.3128	0.1330
    97	0.3939	0.6489	0.0139	0.1244	0.2353	0.0792	0.5982	0.6174	0.6574	0.6656	0.7885	0.2349
    98	0.1579	0.3610	0.5769	0.4998	0.7939	0.2763	0.1596	0.9982	0.3580	0.2470	0.3927	0.2432
    99	0.5066	0.6010	0.5119	0.2920	0.3580	0.9371	0.8848	0.5436	0.5776	0.1553	0.3258	0.5616
    100	0.3415	0.0966	0.4654	0.6388	0.2935	0.6075	0.3003	0.2879	0.4852	0.2696	0.6002	0.5872
    101	0.9073	0.2442	0.6849	0.8504	0.7287	0.3634	0.5056	0.0749	0.1493	0.3810	0.3726	0.3175
    102	0.5184	0.4065	0.6328	0.3577	0.7463	0.6851	0.7417	0.3690	0.4472	0.7499	0.0768	0.1220
    103	0.8289	0.2639	0.7636	0.3586	0.5649	0.0534	0.1784	0.1396	0.7216	0.1980	0.3259	0.2292
    104	0.1971	0.1257	0.5593	0.5891	0.4243	0.9142	0.4117	0.1280	0.0033	0.9692	0.9064	0.8420
    105	0.9726	0.1115	0.7826	0.2189	0.6125	0.5908	0.0286	0.9385	0.8226	0.1413	0.6088	0.2817
    106	0.6502	0.7691	0.2615	0.7215	0.7467	0.2684	0.2289	0.4457	0.2162	0.1681	0.9497	0.1482
    107	0.6825	0.3867	0.1571	0.3598	0.7884	0.7294	0.3778	0.7012	0.9186	0.2314	0.2395	0.5763
    108	0.8800	0.7870	0.9254	0.3896	0.0874	0.8140	0.7870	0.2804	0.0827	0.8347	0.8395	0.0718
    109	0.1586	0.1620	0.8099	0.5930	0.8967	0.6285	0.4846	0.8271	0.3792	0.9110	0.2854	0.9724
    110	0.5018	0.8892	0.4462	0.2356	0.2945	0.3971	0.5217	0.8808	0.3970	0.0289	0.7729	0.3813
    111	0.8570	0.7800	0.4782	0.3171	0.7849	0.9392	0.2399	0.8527	0.1107	0.2772	0.1270	0.6822
    112	0.1526	0.0360	0.0556	0.4197	0.7720	0.1046	0.7506	0.6056	0.7365	0.3381	0.5782	0.9148
    113	0.1949	0.5918	0.3988	0.9940	0.0535	0.6006	0.6635	0.0755	0.1417	0.0331	0.5373	0.8861
    114	0.2423	0.0731	0.9858	0.1856	0.7981	0.5247	0.3721	0.0053	0.2027	0.4986	0.5780	0.6669
    115	0.4799	0.5108	0.2904	0.1073	0.2710	0.4266	0.5331	0.2407	0.7989	0.4002	0.7257	0.6152
    116	0.8481	0.6416	0.4175	0.1260	0.7616	0.5161	0.8200	0.8250	0.7879	0.7931	0.6296	0.1637
    117	0.8403	0.5420	0.9487	0.8998	0.6591	0.8630	0.4415	0.8516	0.2582	0.8530	0.5602	0.3879
    118	0.3917	0.3810	0.6612	0.8824	0.7462	0.5029	0.7442	0.2322	0.8814	0.2950	0.2776	0.4251
];

%%-----  Energy Storage Data  -----%%
%% storage location
% bus	Emax	Emin	E0	Ed	Pchmax	Pdcmax	effciency	Pchcost	Pdccost
mpc.storage = [
    1-118	30	0	0.4	-0.4	0.2	0.2	0.8	-42	44
];
